Constantino Meza Peer Mentor Presentation Master's in Mechanical Engineering ASU
Mr. V Mentor / ASCEND Director 12 years - Follow up
Dr. Ed Ong 


carer planning - allocated an hour a week to better his odds
start applying now - resume - interviewing - Math Diff eq's - how to formulate a problem and solution - Office hours or Bug the professor
Goal setting - 6 Months Career plan + Academic Goals - 12 Months - 2 Years

Career Fairs - Key words - CV Length 

Interview - Do research and know the company - ask questions - they ask about resume experience - and technical skills - simulation experience - formulate problem
"What does the next 4-6 months look in this position?"
Have stories - STAR / SMART - Go for smaller companies - Rarely engineering questions - Program management or Technical - 

ASCEND is not enough - Its competetive - F1 Team - Satellite club - Rocket club - 

Job Landing - Communication - Networking - Projects - Degrees - 

Constantino Meza (Active DOD Secret Security Clearance)
📞 480-280-2976 | ✉️ meza.tino@yahoo.com
 | US citizen

EDUCATION

M.S., Mechanical Engineering
Arizona State University, Tempe, AZ
January 2024 – December 2025
GPA: 3.93/4.00
Relevant coursework: Applied Computational Fluid Dynamics (ANSYS Fluent), Advanced Heat Transfer

B.S.E., Mechanical Engineering
Arizona State University, Tempe, AZ
December 2023
GPA: 3.67/4.00 – Honors: Magna Cum Laude
Relevant coursework: Computer-Aided Engineering II (ANSYS Mechanical, FEA)

TECHNICAL SKILLS

Design and Application:
SOLIDWORKS 2020, ANSYS Fluent, ANSYS Workbench, MATLAB, Siemens NX (v1984), COMSOL

Project and Collaboration Tools:
Jira, Confluence

PROFESSIONAL EXPERIENCES

Applied Research Associates (ARA) – Albuquerque, NM
Junior Mod & Sim Engineer (FEA/CFD) – Insight Global contract to ARA
October 2025 – Present

Air Force Research Laboratory (AFRL) – Kirtland AFB, NM
Small Satellite Design Intern – AFRL Scholars
May 2025 – August 2025

Developed MATLAB scripts for single- and multi-node thermal analysis of spacecraft

Designed and implemented self-taught MATLAB GUIs to streamline analysis workflows

Created internal documentation outlining procedures for analytical and computational modeling

3D Energy Device Laboratory, Arizona State University – Tempe, AZ
Graduate Researcher – Electric Conduction of Carbon Nanotubes (CNT)
May 2025 – October 2025

Developed simulation models for single and multi-wall carbon nanotubes (CNT)

Converted STL files to solid geometry and scaled models using SpaceClaim

Analyzed electrical conductivity of CNTs using ANSYS Electric Conduction

Executed Explicit Dynamics simulations for stress-strain characteristics

Graduate Researcher – Master Opportunity Research Experience (MORE)
January 2025 – May 2025

Conducted 3D adjoint optimization of pin fin heat sinks to improve heat transfer and reduce pressure drop

Optimized mesh quality (0.5 ± 5% skewness) using advanced meshing techniques

Performed convergence studies on turbulence models (identified k-epsilon as most accurate)

Graduate Researcher – 2D Optimization of Single Pin Fin Heat Sink
January 2024 – May 2024

Conducted mesh independence tests for fluid flow simulation accuracy

Applied adjoint optimization in ANSYS Fluent, reducing velocity by 30%

Developed a bullet-shaped pin fin through five optimization iterations

Undergraduate Researcher – Fulton Undergraduate Research Initiative (FURI)
August 2023 – November 2023

Investigated pin geometries/densities for heat transfer and pressure drop

Used SOLIDWORKS 2020 for design and steady-state CFD simulations

Documented procedures and findings

Identified 14-pin fin design as optimal for temperature and pressure performance

Air Force Nuclear Weapons Center (AFNWC) – Hill AFB, UT
Intern – Premier College Intern Program (PCIP)
May 2023 – August 2023

Supported equipment, acquisition, and systems engineering for the ICBM Program
